LTspice 26.0.1 for Windows
Circuit: C:\Users\judes\Documents\LTspice\Draft1.net
Start Time: Wed Jan 28 17:13:27 2026
solver = Normal
Maximum thread count: 16
tnom = 27
temp = 27
method = trap
Direct Newton iteration succeeded in finding operating point.
Total elapsed time: 0.239 seconds.

Files loaded:
C:\Users\judes\Documents\LTspice\Draft1.net

