LTspice 26.0.1 for Windows
Circuit: C:\Users\judes\Desktop\UTD Grad Courses\Spring 2026\EECT 7v88\LTSpice_files\Draft1.net
Start Time: Thu Jan 29 23:42:23 2026
solver = Normal
Maximum thread count: 16
tnom = 27
temp = 27
method = trap
Direct Newton iteration succeeded in finding operating point.
Total elapsed time: 0.082 seconds.

Files loaded:
C:\Users\judes\Desktop\UTD Grad Courses\Spring 2026\EECT 7v88\LTSpice_files\Draft1.net

