LTspice 26.0.1 for Windows
Circuit: C:\Users\judes\Desktop\UTD Grad Courses\Spring 2026\EECT 7v88\Digital-Twins-transient_v2\LTSpice_files\Draft2.net
Start Time: Mon Feb 16 15:34:03 2026
solver = Normal
Maximum thread count: 16
tnom = 27
temp = 27
method = trap
.OP point found by inspection.
.OP point found by inspection.
Total elapsed time: 0.128 seconds.

Files loaded:
C:\Users\judes\Desktop\UTD Grad Courses\Spring 2026\EECT 7v88\Digital-Twins-transient_v2\LTSpice_files\Draft2.net

